FoamFile
{
    version     2.0;
    format      ascii;
    class       surfaceVectorField;
    object      Uf;
}

dimensions      [0 1 -1 0 0 0 0];

internalField   uniform (1 0 0);

boundaryField
{
    top
    {
        type            fixedValue;
        value           uniform (1 0 0);
    }
    inlet
    {
        type            fixedValue;
        value           uniform (1 0 0);
    }
    outlet
    {
        type            fixedValue;
        value           uniform (1 0 0);
    }
    ground
    {
        type            fixedValue;
        value           uniform (1 0 0);
    }
    frontAndBack {
        type            empty;
    }
}
