FoamFile {
    version     2.0;
    format      ascii;
    class       dictionary;
    location    "system";
    object      controlDict;
}

startFrom           startTime;
startTime           0;
stopAt              endTime;
endTime             0.5;
deltaT              0.5;
writeControl        runTime;
writeInterval       0.5;
writeFormat         ascii;//binary;
writePrecision      12;
writeCompression    uncompressed;
timeFormat          fixed;
timePrecision       0;
